48
Lattice="14.79852658482945 0.0 0.0 0.0 8.59471684542386 0.0 0.0 0.0 15.0" Properties=species:S:1:pos:R:3 pbc="T T F"
C        0.61660527       1.43668477       7.50000000
C        0.61660527       2.86067366       7.50000000
C        1.84981582       0.72469033       7.50000000
C        1.84981582       3.57266810       7.50000000
C        3.08302637       1.43668477       7.50000000
C        3.08302637       2.86067366       7.50000000
C        4.31623692       0.72469033       7.50000000
C        4.31623692       3.57266810       7.50000000
C        5.54944747       1.43668477       7.50000000
C        5.54944747       2.86067366       7.50000000
C        6.78265802       0.72469033       7.50000000
C        6.78265802       3.57266810       7.50000000
C        8.01586856       1.43668477       7.50000000
C        8.01586856       2.86067366       7.50000000
C        9.24907911       0.72469033       7.50000000
C        9.24907911       3.57266810       7.50000000
C       10.48228966       1.43668477       7.50000000
C       10.48228966       2.86067366       7.50000000
C       11.71550021       0.72469033       7.50000000
C       11.71550021       3.57266810       7.50000000
C       12.94871076       1.43668477       7.50000000
C       12.94871076       2.86067366       7.50000000
C       14.18192131       0.72469033       7.50000000
C       14.18192131       3.57266810       7.50000000
C        0.61660527       5.73404319       7.50000000
C        0.61660527       7.15803208       7.50000000
C        1.84981582       5.02204875       7.50000000
C        1.84981582       7.87002652       7.50000000
C        3.08302637       5.73404319       7.50000000
C        3.08302637       7.15803208       7.50000000
C        4.31623692       5.02204875       7.50000000
C        4.31623692       7.87002652       7.50000000
C        5.54944747       5.73404319       7.50000000
C        5.54944747       7.15803208       7.50000000
C        6.78265802       5.02204875       7.50000000
C        6.78265802       7.87002652       7.50000000
C        8.01586856       5.73404319       7.50000000
C        8.01586856       7.15803208       7.50000000
C        9.24907911       5.02204875       7.50000000
C        9.24907911       7.87002652       7.50000000
C       10.48228966       5.73404319       7.50000000
C       10.48228966       7.15803208       7.50000000
C       11.71550021       5.02204875       7.50000000
C       11.71550021       7.87002652       7.50000000
C       12.94871076       5.73404319       7.50000000
C       12.94871076       7.15803208       7.50000000
C       14.18192131       5.02204875       7.50000000
C       14.18192131       7.87002652       7.50000000
